<?xml version="1.0" encoding="UTF-8"?>

<!-- generated on 2025-02-11 02:05:29 by Eclipse SUMO netedit Version 1.20.0
<configuration xmlns:xsi="http://www.w3.org/2001/XMLSchema-instance" xsi:noNamespaceSchemaLocation="http://sumo.dlr.de/xsd/neteditConfiguration.xsd">

    <input>
        <sumocfg-file value="/Users/zhiyao/PycharmProjects/SUMO_from_data/SUMO_files/SR1-3.sumocfg"/>
        <route-files value="/Users/zhiyao/PycharmProjects/SUMO_from_data/SUMO_files/SR1-3.rou.xml"/>
        <sumo-net-file value="/Users/zhiyao/PycharmProjects/SUMO_from_data/SUMO_files/SR1-3-NEMA.net.xml"/>
    </input>

    <output>
        <human-readable-time value="0"/>
        <output-file value="/Users/zhiyao/PycharmProjects/SUMO_from_data/SUMO_files/SR1-3-NEMA.net.xml"/>
        <output.street-names value="true"/>
    </output>

    <processing>
        <geometry.min-radius.fix.railways value="false"/>
        <geometry.max-grade.fix value="false"/>
        <offset.disable-normalization value="true"/>
        <lefthand value="0"/>
    </processing>

    <junctions>
        <no-turnarounds value="true"/>
        <junctions.corner-detail value="5"/>
        <junctions.limit-turn-speed value="5.50"/>
        <rectangular-lane-cut value="0"/>
    </junctions>

    <pedestrian>
        <walkingareas value="0"/>
    </pedestrian>

    <netedit>
        <ignore.routeelements value="false"/>
    </netedit>

</configuration>
-->

<net version="1.20" junctionCornerDetail="5" limitTurnSpeed="5.50" xmlns:xsi="http://www.w3.org/2001/XMLSchema-instance" xsi:noNamespaceSchemaLocation="http://sumo.dlr.de/xsd/net_file.xsd">

    <location netOffset="-536651.04,-3982550.00" convBoundary="1030.34,3350.52,2746.81,4031.09" origBoundary="-86.593278,35.986543,-86.548777,36.026692" projParameter="+proj=utm +zone=16 +ellps=WGS84 +datum=WGS84 +units=m +no_defs"/>

    <type id="highway.primary" priority="12" numLanes="2" speed="27.78" disallow="tram rail_urban rail rail_electric rail_fast ship container cable_car subway aircraft wheelchair scooter drone" oneway="0"/>
    <type id="highway.residential" priority="3" numLanes="1" speed="13.89" disallow="tram rail_urban rail rail_electric rail_fast ship container cable_car subway aircraft wheelchair scooter drone" oneway="0"/>
    <type id="highway.secondary" priority="11" numLanes="1" speed="27.78" disallow="tram rail_urban rail rail_electric rail_fast ship container cable_car subway aircraft wheelchair scooter drone" oneway="0"/>

    <edge id=":1027351045#1-AddedOffRampNode_0" function="internal">
        <lane id=":1027351045#1-AddedOffRampNode_0_0" index="0" disallow="tram rail_urban rail rail_electric rail_fast ship container cable_car subway aircraft wheelchair scooter drone" speed="21.00" length="8.27" shape="1999.28,3575.87 1997.06,3577.04 1995.89,3578.53 1994.72,3580.01 1992.50,3581.18"/>
        <lane id=":1027351045#1-AddedOffRampNode_0_1" index="1" disallow="tram rail_urban rail rail_electric rail_fast ship container cable_car subway aircraft wheelchair scooter drone" speed="21.00" length="8.27" shape="1999.28,3575.87 1991.60,3578.11"/>
        <lane id=":1027351045#1-AddedOffRampNode_0_2" index="2" disallow="tram rail_urban rail rail_electric rail_fast ship container cable_car subway aircraft wheelchair scooter drone" speed="21.00" length="8.27" shape="1998.38,3572.80 1990.70,3575.04"/>
    </edge>
    <edge id=":203485751_0" function="internal">
        <lane id=":203485751_0_0" index="0" disallow="tram rail_urban rail rail_electric rail_fast ship container cable_car subway aircraft wheelchair scooter drone" speed="21.00" length="0.30" shape="2229.81,3484.16 2230.08,3484.07"/>
        <lane id=":203485751_0_1" index="1" disallow="tram rail_urban rail rail_electric rail_fast ship container cable_car subway aircraft wheelchair scooter drone" speed="21.00" length="0.30" shape="2230.71,3487.23 2231.00,3487.14"/>
    </edge>
    <edge id=":203512846_0" function="internal">
        <lane id=":203512846_0_0" index="0" disallow="tram rail_urban rail rail_electric rail_fast ship container cable_car subway aircraft wheelchair scooter drone" speed="21.00" length="0.30" shape="1266.74,3772.61 1267.03,3772.52"/>
        <lane id=":203512846_0_1" index="1" disallow="tram rail_urban rail rail_electric rail_fast ship container cable_car subway aircraft wheelchair scooter drone" speed="21.00" length="0.30" shape="1267.68,3775.67 1267.95,3775.59"/>
    </edge>
    <edge id=":203512883_0" function="internal">
        <lane id=":203512883_0_0" index="0" disallow="tram rail_urban rail rail_electric rail_fast ship container cable_car subway aircraft wheelchair scooter drone" speed="21.00" length="0.30" shape="2318.18,3457.49 2318.47,3457.41"/>
        <lane id=":203512883_0_1" index="1" disallow="tram rail_urban rail rail_electric rail_fast ship container cable_car subway aircraft wheelchair scooter drone" speed="21.00" length="0.30" shape="2319.11,3460.55 2319.40,3460.47"/>
    </edge>
    <edge id=":2521640396_0" function="internal">
        <lane id=":2521640396_0_0" index="0" disallow="tram rail_urban rail rail_electric rail_fast ship container cable_car subway aircraft wheelchair scooter drone" speed="21.00" length="0.30" shape="2235.53,3503.80 2235.24,3503.89"/>
        <lane id=":2521640396_0_1" index="1" disallow="tram rail_urban rail rail_electric rail_fast ship container cable_car subway aircraft wheelchair scooter drone" speed="21.00" length="0.30" shape="2234.62,3500.73 2234.33,3500.82"/>
    </edge>
    <edge id=":7936296105_0" function="internal">
        <lane id=":7936296105_0_0" index="0" disallow="tram rail_urban rail rail_electric rail_fast ship container cable_car subway aircraft wheelchair scooter drone" speed="21.00" length="8.81" shape="1297.95,3763.28 1300.19,3761.83 1301.09,3759.84 1302.00,3757.84 1304.24,3756.39"/>
        <lane id=":7936296105_0_1" index="1" disallow="tram rail_urban rail rail_electric rail_fast ship container cable_car subway aircraft wheelchair scooter drone" speed="21.00" length="8.81" shape="1297.95,3763.28 1300.17,3762.36 1301.55,3761.37 1302.93,3760.38 1305.16,3759.46"/>
        <lane id=":7936296105_0_2" index="2" disallow="tram rail_urban rail rail_electric rail_fast ship container cable_car subway aircraft wheelchair scooter drone" speed="21.00" length="8.81" shape="1297.95,3763.28 1300.32,3762.84 1302.01,3762.90 1303.70,3762.97 1306.07,3762.52"/>
        <lane id=":7936296105_0_3" index="3" disallow="tram rail_urban rail rail_electric rail_fast ship container cable_car subway aircraft wheelchair scooter drone" speed="21.00" length="8.81" shape="1298.87,3766.35 1301.23,3765.90 1302.93,3765.97 1304.62,3766.04 1306.99,3765.59"/>
        <lane id=":7936296105_0_4" index="4" disallow="tram rail_urban rail rail_electric rail_fast ship container cable_car subway aircraft wheelchair scooter drone" speed="21.00" length="8.81" shape="1298.87,3766.35 1301.54,3766.33 1303.39,3767.50 1305.24,3768.67 1307.91,3768.66"/>
    </edge>
    <edge id=":9035090826_0" function="internal">
        <lane id=":9035090826_0_0" index="0" disallow="tram rail_urban rail rail_electric rail_fast ship container cable_car subway aircraft wheelchair scooter drone" speed="21.00" length="8.21" shape="2338.04,3451.44 2340.26,3450.51 2341.63,3449.51 2343.00,3448.52 2345.22,3447.58"/>
        <lane id=":9035090826_0_1" index="1" disallow="tram rail_urban rail rail_electric rail_fast ship container cable_car subway aircraft wheelchair scooter drone" speed="21.00" length="8.21" shape="2338.04,3451.44 2340.40,3450.99 2342.10,3451.04 2343.79,3451.10 2346.16,3450.64"/>
        <lane id=":9035090826_0_2" index="2" disallow="tram rail_urban rail rail_electric rail_fast ship container cable_car subway aircraft wheelchair scooter drone" speed="21.00" length="8.21" shape="2338.97,3454.51 2341.34,3454.05 2343.03,3454.11 2344.72,3454.16 2347.09,3453.70"/>
    </edge>
    <edge id=":9695131467_0" function="internal">
        <lane id=":9695131467_0_0" index="0" disallow="tram rail_urban rail rail_electric rail_fast ship container cable_car subway aircraft wheelchair scooter drone" speed="21.00" length="8.23" shape="1920.39,3602.20 1918.14,3603.04 1916.67,3603.82 1915.20,3604.59 1912.94,3605.40"/>
        <lane id=":9695131467_0_1" index="1" disallow="tram rail_urban rail rail_electric rail_fast ship container cable_car subway aircraft wheelchair scooter drone" speed="21.00" length="8.23" shape="1919.46,3599.14 1917.22,3599.97 1915.77,3600.75 1914.31,3601.52 1912.06,3602.32"/>
        <lane id=":9695131467_0_2" index="2" disallow="tram rail_urban rail rail_electric rail_fast ship container cable_car subway aircraft wheelchair scooter drone" speed="21.00" length="8.23" shape="1919.46,3599.14 1917.05,3599.50 1915.32,3599.22 1913.59,3598.92 1911.18,3599.24"/>
        <lane id=":9695131467_0_3" index="3" disallow="tram rail_urban rail rail_electric rail_fast ship container cable_car subway aircraft wheelchair scooter drone" speed="21.00" length="8.23" shape="1918.52,3596.08 1916.13,3596.44 1914.42,3596.15 1912.69,3595.84 1910.29,3596.17"/>
    </edge>
    <edge id=":9695131472_0" function="internal">
        <lane id=":9695131472_0_0" index="0" disallow="tram rail_urban rail rail_electric rail_fast ship container cable_car subway aircraft wheelchair scooter drone" speed="13.89" length="8.06" shape="1884.96,3657.33 1879.97,3650.76"/>
        <lane id=":9695131472_0_1" index="1" disallow="tram rail_urban rail rail_electric rail_fast ship container cable_car subway aircraft wheelchair scooter drone" speed="13.89" length="8.06" shape="1887.45,3655.32 1882.58,3648.90"/>
        <lane id=":9695131472_0_2" index="2" disallow="tram rail_urban rail rail_electric rail_fast ship container cable_car subway aircraft wheelchair scooter drone" speed="13.89" length="8.06" shape="1889.94,3653.31 1885.19,3647.04"/>
    </edge>
    <edge id=":9695131472_3" function="internal">
        <lane id=":9695131472_3_0" index="0" disallow="tram rail_urban rail rail_electric rail_fast ship container cable_car subway aircraft wheelchair scooter drone" speed="13.89" length="7.58" shape="1890.40,3643.33 1894.92,3649.29"/>
        <lane id=":9695131472_3_1" index="1" disallow="tram rail_urban rail rail_electric rail_fast ship container cable_car subway aircraft wheelchair scooter drone" speed="13.89" length="7.58" shape="1887.79,3645.19 1892.43,3651.30"/>
    </edge>
    <edge id=":J10_0" function="internal">
        <lane id=":J10_0_0" index="0" disallow="tram rail_urban rail rail_electric rail_fast ship container cable_car subway aircraft wheelchair scooter drone" speed="21.00" length="15.37" shape="1759.00,3625.00 1763.03,3623.05 1765.28,3620.68 1767.54,3618.30 1771.56,3616.35"/>
        <lane id=":J10_0_1" index="1" disallow="tram rail_urban rail rail_electric rail_fast ship container cable_car subway aircraft wheelchair scooter drone" speed="21.00" length="15.37" shape="1759.00,3625.00 1763.13,3623.54 1765.83,3622.18 1768.53,3620.83 1772.66,3619.37"/>
        <lane id=":J10_0_2" index="2" disallow="tram rail_urban rail rail_electric rail_fast ship container cable_car subway aircraft wheelchair scooter drone" speed="21.00" length="15.37" shape="1759.00,3625.00 1763.34,3624.00 1766.38,3623.69 1769.43,3623.38 1773.76,3622.38"/>
        <lane id=":J10_0_3" index="3" disallow="tram rail_urban rail rail_electric rail_fast ship container cable_car subway aircraft wheelchair scooter drone" speed="21.00" length="15.37" shape="1759.89,3628.07 1764.29,3627.06 1767.38,3626.73 1770.47,3626.41 1774.86,3625.39"/>
        <lane id=":J10_0_4" index="4" disallow="tram rail_urban rail rail_electric rail_fast ship container cable_car subway aircraft wheelchair scooter drone" speed="21.00" length="15.37" shape="1759.89,3628.07 1764.58,3627.49 1767.93,3628.24 1771.28,3628.98 1775.96,3628.40"/>
    </edge>
    <edge id=":J11_0" function="internal">
        <lane id=":J11_0_0" index="0" disallow="tram rail_urban rail rail_electric rail_fast ship container cable_car subway aircraft wheelchair scooter drone" speed="13.89" length="9.14" shape="1901.10,3667.42 1898.75,3665.91 1896.25,3666.23 1893.71,3666.57 1891.25,3665.12"/>
        <lane id=":J11_0_1" index="1" disallow="tram rail_urban rail rail_electric rail_fast ship container cable_car subway aircraft wheelchair scooter drone" speed="13.89" length="9.14" shape="1901.10,3667.42 1899.26,3665.76 1897.48,3665.22 1895.66,3664.70 1893.74,3663.11"/>
        <lane id=":J11_0_2" index="2" disallow="tram rail_urban rail rail_electric rail_fast ship container cable_car subway aircraft wheelchair scooter drone" speed="13.89" length="9.14" shape="1901.10,3667.42 1896.23,3661.10"/>
    </edge>
    <edge id=":J12_0" function="internal">
        <lane id=":J12_0_0" index="0" disallow="tram rail_urban rail rail_electric rail_fast ship container cable_car subway aircraft wheelchair scooter drone" speed="21.00" length="0.28" shape="2323.75,3477.33 2323.50,3477.41"/>
        <lane id=":J12_0_1" index="1" disallow="tram rail_urban rail rail_electric rail_fast ship container cable_car subway aircraft wheelchair scooter drone" speed="21.00" length="0.28" shape="2322.82,3474.27 2322.53,3474.36"/>
    </edge>
    <edge id=":J13_0" function="internal">
        <lane id=":J13_0_0" index="0" disallow="tram rail_urban rail rail_electric rail_fast ship container cable_car subway aircraft wheelchair scooter drone" speed="21.00" length="8.20" shape="2510.64,3421.67 2508.41,3422.61 2507.03,3423.60 2505.65,3424.58 2503.41,3425.49"/>
        <lane id=":J13_0_1" index="1" disallow="tram rail_urban rail rail_electric rail_fast ship container cable_car subway aircraft wheelchair scooter drone" speed="21.00" length="8.20" shape="2509.71,3418.61 2507.49,3419.54 2506.12,3420.53 2504.74,3421.51 2502.51,3422.42"/>
        <lane id=":J13_0_2" index="2" disallow="tram rail_urban rail rail_electric rail_fast ship container cable_car subway aircraft wheelchair scooter drone" speed="21.00" length="8.20" shape="2509.71,3418.61 2507.35,3419.06 2505.67,3418.99 2503.98,3418.92 2501.61,3419.35"/>
    </edge>
    <edge id=":J5_0" function="internal">
        <lane id=":J5_0_0" index="0" disallow="tram rail_urban rail rail_electric rail_fast ship container cable_car subway aircraft wheelchair scooter drone" speed="27.78" length="8.29" shape="1349.46,3678.77 1349.96,3681.24 1351.08,3682.77 1352.26,3684.29 1352.92,3686.76"/>
        <lane id=":J5_0_1" index="1" disallow="tram rail_urban rail rail_electric rail_fast ship container cable_car subway aircraft wheelchair scooter drone" speed="27.78" length="8.29" shape="1349.46,3678.77 1349.71,3686.76"/>
        <lane id=":J5_0_2" index="2" disallow="tram rail_urban rail rail_electric rail_fast ship container cable_car subway aircraft wheelchair scooter drone" speed="27.78" length="8.29" shape="1346.26,3678.77 1346.51,3686.76"/>
    </edge>
    <edge id=":J6_0" function="internal">
        <lane id=":J6_0_0" index="0" disallow="tram rail_urban rail rail_electric rail_fast ship container cable_car subway aircraft wheelchair scooter drone" speed="21.00" length="8.21" shape="1414.84,3750.15 1412.61,3751.07 1411.23,3752.05 1409.85,3753.03 1407.62,3753.95"/>
        <lane id=":J6_0_1" index="1" disallow="tram rail_urban rail rail_electric rail_fast ship container cable_car subway aircraft wheelchair scooter drone" speed="21.00" length="8.21" shape="1414.84,3750.15 1412.47,3750.59 1410.78,3750.52 1409.08,3750.44 1406.71,3750.89"/>
        <lane id=":J6_0_2" index="2" disallow="tram rail_urban rail rail_electric rail_fast ship container cable_car subway aircraft wheelchair scooter drone" speed="21.00" length="8.21" shape="1413.93,3747.08 1411.56,3747.52 1409.87,3747.45 1408.18,3747.38 1405.81,3747.82"/>
    </edge>
    <edge id=":S1_0" function="internal">
        <lane id=":S1_0_0" index="0" disallow="tram rail_urban rail rail_electric rail_fast ship container cable_car subway aircraft wheelchair scooter drone" speed="6.45" length="9.39" shape="1347.19,3776.80 1346.23,3774.28 1344.77,3772.72 1342.80,3772.14 1340.32,3772.52"/>
    </edge>
    <edge id=":S1_1" function="internal">
        <lane id=":S1_1_0" index="0" disallow="tram rail_urban rail rail_electric rail_fast ship container cable_car subway aircraft wheelchair scooter drone" speed="20.84" length="37.98" shape="1350.30,3776.07 1348.36,3764.71 1347.36,3753.59 1346.94,3744.27 1346.72,3738.32"/>
    </edge>
    <edge id=":S1_2" function="internal">
        <lane id=":S1_2_0" index="0" disallow="tram rail_urban rail rail_electric rail_fast ship container cable_car subway aircraft wheelchair scooter drone" speed="12.34" length="12.58" shape="1353.42,3775.35 1351.99,3764.70 1352.25,3762.89"/>
    </edge>
    <edge id=":S1_15" function="internal">
        <lane id=":S1_15_0" index="0" disallow="tram rail_urban rail rail_electric rail_fast ship container cable_car subway aircraft wheelchair scooter drone" speed="12.34" length="20.94" shape="1352.25,3762.89 1353.19,3756.43 1357.03,3750.52 1363.50,3747.00"/>
    </edge>
    <edge id=":S1_3" function="internal">
        <lane id=":S1_3_0" index="0" disallow="tram rail_urban rail rail_electric rail_fast ship container cable_car subway aircraft wheelchair scooter drone" speed="8.09" length="13.87" shape="1369.02,3765.39 1364.46,3767.10 1361.37,3769.09 1359.77,3771.36 1359.65,3773.90"/>
    </edge>
    <edge id=":S1_4" function="internal">
        <lane id=":S1_4_0" index="0" disallow="tram rail_urban rail rail_electric rail_fast ship container cable_car subway aircraft wheelchair scooter drone" speed="21.00" length="29.63" shape="1368.10,3762.33 1339.35,3769.48"/>
    </edge>
    <edge id=":S1_5" function="internal">
        <lane id=":S1_5_0" index="0" disallow="tram rail_urban rail rail_electric rail_fast ship container cable_car subway aircraft wheelchair scooter drone" speed="11.54" length="20.39" shape="1367.18,3759.26 1357.56,3760.22 1351.50,3756.61 1350.02,3753.26"/>
    </edge>
    <edge id=":S1_16" function="internal">
        <lane id=":S1_16_0" index="0" disallow="tram rail_urban rail rail_electric rail_fast ship container cable_car subway aircraft wheelchair scooter drone" speed="11.54" length="15.43" shape="1350.02,3753.26 1348.17,3749.09 1346.72,3738.32"/>
    </edge>
    <edge id=":S1_6" function="internal">
        <lane id=":S1_6_0" index="0" disallow="tram rail_urban rail rail_electric rail_fast ship container cable_car subway aircraft wheelchair scooter drone" speed="6.52" length="10.62" shape="1356.29,3737.68 1356.89,3741.06 1358.13,3743.23 1360.03,3744.19 1362.58,3743.93"/>
    </edge>
    <edge id=":S1_7" function="internal">
        <lane id=":S1_7_0" index="0" disallow="tram rail_urban rail rail_electric rail_fast ship container cable_car subway aircraft wheelchair scooter drone" speed="20.84" length="36.67" shape="1356.29,3737.68 1356.92,3748.29 1357.50,3757.75 1358.31,3766.24 1359.65,3773.90"/>
        <lane id=":S1_7_1" index="1" disallow="tram rail_urban rail rail_electric rail_fast ship container cable_car subway aircraft wheelchair scooter drone" speed="20.84" length="36.67" shape="1353.10,3737.89 1353.74,3748.58 1354.34,3758.22 1355.18,3766.88 1356.54,3774.63"/>
    </edge>
    <edge id=":S1_9" function="internal">
        <lane id=":S1_9_0" index="0" disallow="tram rail_urban rail rail_electric rail_fast ship container cable_car subway aircraft wheelchair scooter drone" speed="13.66" length="13.11" shape="1349.91,3738.10 1349.93,3750.35 1349.77,3751.20"/>
    </edge>
    <edge id=":S1_17" function="internal">
        <lane id=":S1_17_0" index="0" disallow="tram rail_urban rail rail_electric rail_fast ship container cable_car subway aircraft wheelchair scooter drone" speed="13.66" length="22.21" shape="1349.77,3751.20 1348.18,3759.66 1344.65,3766.04 1339.35,3769.48"/>
    </edge>
    <edge id=":S1_10" function="internal">
        <lane id=":S1_10_0" index="0" disallow="tram rail_urban rail rail_electric rail_fast ship container cable_car subway aircraft wheelchair scooter drone" speed="9.81" length="18.09" shape="1332.48,3747.94 1338.84,3745.70 1343.33,3743.35 1345.96,3740.89 1346.72,3738.32"/>
    </edge>
    <edge id=":S1_11" function="internal">
        <lane id=":S1_11_0" index="0" disallow="tram rail_urban rail rail_electric rail_fast ship container cable_car subway aircraft wheelchair scooter drone" speed="21.00" length="29.94" shape="1333.46,3750.99 1362.58,3743.93"/>
        <lane id=":S1_11_1" index="1" disallow="tram rail_urban rail rail_electric rail_fast ship container cable_car subway aircraft wheelchair scooter drone" speed="21.00" length="29.94" shape="1334.43,3754.04 1363.50,3747.00"/>
    </edge>
    <edge id=":S1_13" function="internal">
        <lane id=":S1_13_0" index="0" disallow="tram rail_urban rail rail_electric rail_fast ship container cable_car subway aircraft wheelchair scooter drone" speed="11.88" length="21.77" shape="1335.40,3757.09 1344.05,3756.01 1350.98,3758.45 1354.73,3762.76"/>
        <lane id=":S1_13_1" index="1" disallow="tram rail_urban rail rail_electric rail_fast ship container cable_car subway aircraft wheelchair scooter drone" speed="10.92" length="16.25" shape="1336.37,3760.14 1343.52,3759.28 1349.27,3761.41 1351.16,3763.64"/>
    </edge>
    <edge id=":S1_18" function="internal">
        <lane id=":S1_18_0" index="0" disallow="tram rail_urban rail rail_electric rail_fast ship container cable_car subway aircraft wheelchair scooter drone" speed="11.88" length="12.30" shape="1354.73,3762.76 1356.18,3764.41 1359.65,3773.90"/>
    </edge>
    <edge id=":S1_19" function="internal">
        <lane id=":S1_19_0" index="0" disallow="tram rail_urban rail rail_electric rail_fast ship container cable_car subway aircraft wheelchair scooter drone" speed="10.92" length="12.39" shape="1351.16,3763.64 1353.60,3766.53 1356.54,3774.63"/>
    </edge>
    <edge id=":S2_0" function="internal">
        <lane id=":S2_0_0" index="0" disallow="tram rail_urban rail rail_electric rail_fast ship container cable_car subway aircraft wheelchair scooter drone" speed="11.11" length="21.29" shape="1865.68,3630.69 1861.32,3625.49 1856.95,3622.17 1852.57,3620.70 1848.18,3621.10"/>
    </edge>
    <edge id=":S2_1" function="internal">
        <lane id=":S2_1_0" index="0" disallow="tram rail_urban rail rail_electric rail_fast ship container cable_car subway aircraft wheelchair scooter drone" speed="13.89" length="46.81" shape="1868.29,3628.83 1842.93,3589.48"/>
    </edge>
    <edge id=":S2_2" function="internal">
        <lane id=":S2_2_0" index="0" disallow="tram rail_urban rail rail_electric rail_fast ship container cable_car subway aircraft wheelchair scooter drone" speed="11.91" length="18.82" shape="1870.89,3626.97 1864.60,3616.35 1863.10,3610.06"/>
    </edge>
    <edge id=":S2_15" function="internal">
        <lane id=":S2_15_0" index="0" disallow="tram rail_urban rail rail_electric rail_fast ship container cable_car subway aircraft wheelchair scooter drone" speed="11.91" length="21.97" shape="1863.10,3610.06 1862.39,3607.09 1865.44,3599.61 1874.92,3594.37"/>
    </edge>
    <edge id=":S2_3" function="internal">
        <lane id=":S2_3_0" index="0" disallow="tram rail_urban rail rail_electric rail_fast ship container cable_car subway aircraft wheelchair scooter drone" speed="5.91" length="9.13" shape="1881.06,3614.54 1878.66,3615.62 1877.47,3617.12 1877.49,3619.05 1878.71,3621.40"/>
    </edge>
    <edge id=":S2_4" function="internal">
        <lane id=":S2_4_0" index="0" disallow="tram rail_urban rail rail_electric rail_fast ship container cable_car subway aircraft wheelchair scooter drone" speed="21.00" length="33.36" shape="1880.13,3611.48 1848.18,3621.10"/>
        <lane id=":S2_4_1" index="1" disallow="tram rail_urban rail rail_electric rail_fast ship container cable_car subway aircraft wheelchair scooter drone" speed="21.00" length="33.36" shape="1879.20,3608.42 1847.26,3618.03"/>
    </edge>
    <edge id=":S2_6" function="internal">
        <lane id=":S2_6_0" index="0" disallow="tram rail_urban rail rail_electric rail_fast ship container cable_car subway aircraft wheelchair scooter drone" speed="15.59" length="23.20" shape="1878.27,3605.36 1868.90,3606.51 1859.89,3604.24 1856.15,3601.79"/>
    </edge>
    <edge id=":S2_16" function="internal">
        <lane id=":S2_16_0" index="0" disallow="tram rail_urban rail rail_electric rail_fast ship container cable_car subway aircraft wheelchair scooter drone" speed="15.59" length="18.19" shape="1856.15,3601.79 1851.23,3598.57 1842.93,3589.48"/>
    </edge>
    <edge id=":S2_7" function="internal">
        <lane id=":S2_7_0" index="0" disallow="tram rail_urban rail rail_electric rail_fast ship container cable_car subway aircraft wheelchair scooter drone" speed="12.93" length="28.40" shape="1848.04,3585.63 1852.78,3590.13 1858.68,3592.57 1865.75,3592.96 1873.99,3591.30"/>
    </edge>
    <edge id=":S2_8" function="internal">
        <lane id=":S2_8_0" index="0" disallow="tram rail_urban rail rail_electric rail_fast ship container cable_car subway aircraft wheelchair scooter drone" speed="13.89" length="46.94" shape="1848.04,3585.63 1876.11,3623.26"/>
    </edge>
    <edge id=":S2_9" function="internal">
        <lane id=":S2_9_0" index="0" disallow="tram rail_urban rail rail_electric rail_fast ship container cable_car subway aircraft wheelchair scooter drone" speed="11.29" length="16.40" shape="1845.48,3587.56 1852.09,3597.42 1853.76,3601.63"/>
    </edge>
    <edge id=":S2_17" function="internal">
        <lane id=":S2_17_0" index="0" disallow="tram rail_urban rail rail_electric rail_fast ship container cable_car subway aircraft wheelchair scooter drone" speed="11.29" length="20.76" shape="1853.76,3601.63 1855.59,3606.24 1854.48,3613.34 1847.26,3618.03"/>
    </edge>
    <edge id=":S2_10" function="internal">
        <lane id=":S2_10_0" index="0" disallow="tram rail_urban rail rail_electric rail_fast ship container cable_car subway aircraft wheelchair scooter drone" speed="5.86" length="9.10" shape="1840.68,3596.29 1843.09,3595.20 1844.27,3593.71 1844.21,3591.80 1842.93,3589.48"/>
    </edge>
    <edge id=":S2_11" function="internal">
        <lane id=":S2_11_0" index="0" disallow="tram rail_urban rail rail_electric rail_fast ship container cable_car subway aircraft wheelchair scooter drone" speed="21.00" length="33.37" shape="1841.60,3599.35 1873.99,3591.30"/>
        <lane id=":S2_11_1" index="1" disallow="tram rail_urban rail rail_electric rail_fast ship container cable_car subway aircraft wheelchair scooter drone" speed="21.00" length="33.37" shape="1842.53,3602.41 1874.92,3594.37"/>
    </edge>
    <edge id=":S2_13" function="internal">
        <lane id=":S2_13_0" index="0" disallow="tram rail_urban rail rail_electric rail_fast ship container cable_car subway aircraft wheelchair scooter drone" speed="15.12" length="21.56" shape="1843.46,3605.47 1851.71,3604.78 1859.90,3607.52 1863.61,3610.32"/>
        <lane id=":S2_13_1" index="1" disallow="tram rail_urban rail rail_electric rail_fast ship container cable_car subway aircraft wheelchair scooter drone" speed="14.36" length="16.28" shape="1844.38,3608.54 1851.58,3608.01 1858.83,3610.60 1859.91,3611.44"/>
    </edge>
    <edge id=":S2_18" function="internal">
        <lane id=":S2_18_0" index="0" disallow="tram rail_urban rail rail_electric rail_fast ship container cable_car subway aircraft wheelchair scooter drone" speed="15.12" length="18.08" shape="1863.61,3610.32 1868.03,3613.68 1876.11,3623.26"/>
    </edge>
    <edge id=":S2_19" function="internal">
        <lane id=":S2_19_0" index="0" disallow="tram rail_urban rail rail_electric rail_fast ship container cable_car subway aircraft wheelchair scooter drone" speed="14.36" length="19.39" shape="1859.91,3611.44 1866.14,3616.30 1873.50,3625.12"/>
    </edge>
    <edge id=":S3_0" function="internal">
        <lane id=":S3_0_0" index="0" disallow="tram rail_urban rail rail_electric rail_fast ship container cable_car subway aircraft wheelchair scooter drone" speed="6.18" length="9.07" shape="2431.81,3450.93 2431.13,3448.47 2429.84,3446.95 2427.94,3446.38 2425.42,3446.76"/>
    </edge>
    <edge id=":S3_1" function="internal">
        <lane id=":S3_1_0" index="0" disallow="tram rail_urban rail rail_electric rail_fast ship container cable_car subway aircraft wheelchair scooter drone" speed="11.32" length="25.72" shape="2434.99,3450.58 2434.03,3440.37 2434.10,3432.85 2435.19,3428.02 2437.29,3425.89"/>
    </edge>
    <edge id=":S3_2" function="internal">
        <lane id=":S3_2_0" index="0" disallow="tram rail_urban rail rail_electric rail_fast ship container cable_car subway aircraft wheelchair scooter drone" speed="6.97" length="9.10" shape="2442.55,3443.33 2440.35,3444.32 2438.86,3445.81 2438.09,3447.78 2438.03,3450.25"/>
    </edge>
    <edge id=":S3_3" function="internal">
        <lane id=":S3_3_0" index="0" disallow="tram rail_urban rail rail_electric rail_fast ship container cable_car subway aircraft wheelchair scooter drone" speed="21.00" length="17.48" shape="2441.63,3440.26 2436.74,3441.96 2433.52,3443.49 2430.30,3445.03 2425.42,3446.76"/>
        <lane id=":S3_3_1" index="1" disallow="tram rail_urban rail rail_electric rail_fast ship container cable_car subway aircraft wheelchair scooter drone" speed="21.00" length="17.48" shape="2440.70,3437.20 2435.81,3438.89 2432.60,3440.42 2429.38,3441.96 2424.50,3443.69"/>
    </edge>
    <edge id=":S3_5" function="internal">
        <lane id=":S3_5_0" index="0" disallow="tram rail_urban rail rail_electric rail_fast ship container cable_car subway aircraft wheelchair scooter drone" speed="21.00" length="17.49" shape="2419.23,3426.15 2424.27,3424.97 2427.81,3424.53 2431.35,3424.07 2436.37,3422.83"/>