<additional>
	<tlLogic id="S1" type="static" programID="1" offset="107">
        <phase duration="78" state="rrrGGrrrrrGGGrr"/>
        <phase duration="4"  state="rrryyrrrrryyyrr"/>
        <phase duration="13" state="rrGrrrrrrGrrrrr"/>
        <phase duration="4"  state="rryrrrrrryrrrrr"/>
        <phase duration="22" state="GGgrrrGGGrrrrrr"/>
        <phase duration="4"  state="yyyrrryyyrrrrrr"/>
        <phase duration="11" state="rrrrrGrrrrrrrGG"/>
        <phase duration="4"  state="rrrrryrrrrrrryy"/>
        <param key="coordinated" value="true"/>
    </tlLogic>
    <tlLogic id="S1" type="static" programID="2" offset="48">
        <phase duration="58" state="rrrGGrrrrrGGGrr"/>
        <phase duration="4"  state="rrryyrrrrryyyrr"/>
        <phase duration="14" state="rrGrrrrrrGrrrrr"/>
        <phase duration="4"  state="rryrrrrrryrrrrr"/>
        <phase duration="11" state="GGgrrrGGGrrrrrr"/>
        <phase duration="4"  state="yyyrrryyyrrrrrr"/>
        <phase duration="11" state="rrrrrGrrrrrrrGG"/>
        <phase duration="4"  state="rrrrryrrrrrrryy"/>
        <param key="coordinated" value="true"/>
    </tlLogic>
    <tlLogic id="S1" type="static" programID="3" offset="51">
        <phase duration="59" state="rrrGGrrrrrGGGrr"/>
        <phase duration="4"  state="rrryyrrrrryyyrr"/>
        <phase duration="13" state="rrGrrrrrrGrrrrr"/>
        <phase duration="4"  state="rryrrrrrryrrrrr"/>
        <phase duration="11" state="GGgrrrGGGrrrrrr"/>
        <phase duration="4"  state="yyyrrryyyrrrrrr"/>
        <phase duration="11" state="rrrrrGrrrrrrrGG"/>
        <phase duration="4"  state="rrrrryrrrrrrryy"/>
        <param key="coordinated" value="true"/>
    </tlLogic>
    <tlLogic id="S1" type="static" programID="4" offset="65">
        <phase duration="65" state="rrrGGrrrrrGGGrr"/>
        <phase duration="4"  state="rrryyrrrrryyyrr"/>
        <phase duration="17" state="rrGrrrrrrGrrrrr"/>
        <phase duration="4"  state="rryrrrrrryrrrrr"/>
        <phase duration="11" state="GGgrrrGGGrrrrrr"/>
        <phase duration="4"  state="yyyrrryyyrrrrrr"/>
        <phase duration="11" state="rrrrrGrrrrrrrGG"/>
        <phase duration="4"  state="rrrrryrrrrrrryy"/>
        <param key="coordinated" value="true"/>
    </tlLogic>
    <tlLogic id="S1" type="static" programID="5" offset="54">
        <phase duration="59" state="rrrGGrrrrrGGGrr"/>
        <phase duration="4"  state="rrryyrrrrryyyrr"/>
        <phase duration="13" state="rrGrrrrrrGrrrrr"/>
        <phase duration="4"  state="rryrrrrrryrrrrr"/>
        <phase duration="11" state="GGgrrrGGGrrrrrr"/>
        <phase duration="4"  state="yyyrrryyyrrrrrr"/>
        <phase duration="11" state="rrrrrGrrrrrrrGG"/>
        <phase duration="4"  state="rrrrryrrrrrrryy"/>
        <param key="coordinated" value="true"/>
    </tlLogic>
    <tlLogic id="S1" type="static" programID="off">
    </tlLogic>

    <tlLogic id="S2" type="static" programID="1" offset="109">
        <phase duration="65" state="rrrGGGrrrrGGGrr"/>
        <phase duration="4"  state="rrrGGGrrrryyyrr"/>
        <phase duration="16" state="rrrGGGGrrrrrrrr"/>
        <phase duration="4"  state="rrryyyyrrrrrrrr"/>
        <phase duration="10" state="rrGrrrrrrGrrrrr"/>
        <phase duration="4"  state="rryrrrrrryrrrrr"/>
        <phase duration="15" state="GGgrrrrGGgrrrrr"/>
        <phase duration="4"  state="yyyrrrryyyrrrrr"/>
        <phase duration="14" state="rrrrrrrrrrGGGGG"/>
        <phase duration="4"  state="rrrrrrrrrrGGGyy"/>
        <param key="coordinated" value="true"/>
    </tlLogic>
    <tlLogic id="S2" type="static" programID="2" offset="20">
        <phase duration="45" state="rrrGGGrrrrGGGrr"/>
        <phase duration="4"  state="rrrGGGrrrryyyrr"/>
        <phase duration="10" state="rrrGGGGrrrrrrrr"/>
        <phase duration="4"  state="rrryyyyrrrrrrrr"/>
        <phase duration="10" state="rrGrrrrrrGrrrrr"/>
        <phase duration="4"  state="rryrrrrrryrrrrr"/>
        <phase duration="15" state="GGgrrrrGGgrrrrr"/>
        <phase duration="4"  state="yyyrrrryyyrrrrr"/>
        <phase duration="10" state="rrrrrrrrrrGGGGG"/>
        <phase duration="4"  state="rrrrrrrrrrGGGyy"/>
        <param key="coordinated" value="true"/>
    </tlLogic>
    <tlLogic id="S2" type="static" programID="3" offset="109">
        <phase duration="34" state="rrrGGGrrrrGGGrr"/>
        <phase duration="4"  state="rrrGGGrrrryyyrr"/>
        <phase duration="14" state="rrrGGGGrrrrrrrr"/>
        <phase duration="4"  state="rrryyyyrrrrrrrr"/>
        <phase duration="11" state="rrGrrrrrrGrrrrr"/>
        <phase duration="4"  state="rryrrrrrryrrrrr"/>
        <phase duration="21" state="GGgrrrrGGgrrrrr"/>
        <phase duration="4"  state="yyyrrrryyyrrrrr"/>
        <phase duration="10" state="rrrrrrrrrrGGGGG"/>
        <phase duration="4"  state="rrrrrrrrrrGGGyy"/>
        <param key="coordinated" value="true"/>
    </tlLogic>
    <tlLogic id="S2" type="static" programID="4" offset="4">
        <phase duration="21" state="rrrGGGrrrrGGGrr"/>
        <phase duration="4"  state="rrrGGGrrrryyyrr"/>
        <phase duration="14" state="rrrGGGGrrrrrrrr"/>
        <phase duration="4"  state="rrryyyyrrrrrrrr"/>
        <phase duration="11" state="rrGrrrrrrGrrrrr"/>
        <phase duration="4"  state="rryrrrrrryrrrrr"/>
        <phase duration="28" state="GGgrrrrGGgrrrrr"/>
        <phase duration="4"  state="yyyrrrryyyrrrrr"/>
        <phase duration="16" state="rrrrrrrrrrGGGGG"/>
        <phase duration="4"  state="rrrrrrrrrrGGGyy"/>
        <param key="coordinated" value="true"/>
    </tlLogic>
    <tlLogic id="S2" type="static" programID="5" offset="8">
        <phase duration="40" state="rrrGGGrrrrGGGrr"/>
        <phase duration="4"  state="rrrGGGrrrryyyrr"/>
        <phase duration="10" state="rrrGGGGrrrrrrrr"/>
        <phase duration="4"  state="rrryyyyrrrrrrrr"/>
        <phase duration="8"  state="rrGrrrrrrGrrrrr"/>
        <phase duration="4"  state="rryrrrrrryrrrrr"/>
        <phase duration="18" state="GGgrrrrGGgrrrrr"/>
        <phase duration="4"  state="yyyrrrryyyrrrrr"/>
        <phase duration="14" state="rrrrrrrrrrGGGGG"/>
        <phase duration="4"  state="rrrrrrrrrrGGGyy"/>
        <param key="coordinated" value="true"/>
    </tlLogic>
    <tlLogic id="S2" type="static" programID="off">
    </tlLogic>

    <tlLogic id="S3" type="static" programID="1" offset="63">
        <phase duration="90" state="rrGGGGGg"/>
        <phase duration="5"  state="rrGyyyyy"/>
        <phase duration="25" state="GGGrrrrr"/>
        <phase duration="5"  state="yyyrrrrr"/>
        <phase duration="10" state="rrrrrGGG"/>
        <phase duration="5"  state="rrrrrGGy"/>
        <param key="coordinated" value="true"/>
    </tlLogic>
    <tlLogic id="S3" type="static" programID="2" offset="21">
        <phase duration="70" state="rrGGGGGg"/>
        <phase duration="5"  state="rrGyyyyy"/>
        <phase duration="15" state="GGGrrrrr"/>
        <phase duration="5"  state="yyyrrrrr"/>
        <phase duration="10" state="rrrrrGGG"/>
        <phase duration="5"  state="rrrrrGGy"/>
        <param key="coordinated" value="true"/>
    </tlLogic>
    <tlLogic id="S3" type="static" programID="3" offset="7">
        <phase duration="67" state="rrGGGGGg"/>
        <phase duration="5"  state="rrGyyyyy"/>
        <phase duration="15" state="GGGrrrrr"/>
        <phase duration="5"  state="yyyrrrrr"/>
        <phase duration="13" state="rrrrrGGG"/>
        <phase duration="5"  state="rrrrrGGy"/>
        <param key="coordinated" value="true"/>
    </tlLogic>
    <tlLogic id="S3" type="static" programID="4" offset="12">
        <phase duration="73" state="rrGGGGGg"/>
        <phase duration="5"  state="rrGyyyyy"/>
        <phase duration="20" state="GGGrrrrr"/>
        <phase duration="5"  state="yyyrrrrr"/>
        <phase duration="12" state="rrrrrGGG"/>
        <phase duration="5"  state="rrrrrGGy"/>
        <param key="coordinated" value="true"/>
    </tlLogic>
    <tlLogic id="S3" type="static" programID="5" offset="108">
        <phase duration="65" state="rrGGGGGg"/>
        <phase duration="5"  state="rrGyyyyy"/>
        <phase duration="15" state="GGGrrrrr"/>
        <phase duration="5"  state="yyyrrrrr"/>
        <phase duration="15" state="rrrrrGGG"/>
        <phase duration="5"  state="rrrrrGGy"/>
        <param key="coordinated" value="true"/>
    </tlLogic>
    <tlLogic id="S3" type="static" programID="off">
    </tlLogic>

	<WAUT refTime="0" period="86400" id="S1" startProg="off">
    <wautSwitch time="18000" to="1"/>    <!-- 5am, am peak -->
    <wautSwitch time="32400" to="2"/>  <!--	9am, midday -->
    <wautSwitch time="45000" to="3"/>   <!-- 12:30pm, school -->
	<wautSwitch time="52200" to="4"/>   <!-- 2:30pm, pm peak -->
    <wautSwitch time="66600" to="5"/>   <!-- 6:30pm, off peak -->
	<wautSwitch time="79200" to="off"/>   <!-- 10:00pm, light off -->
	</WAUT>

  	<wautJunction junctionID="S1" wautID="S1">
	</wautJunction>

	<WAUT refTime="0" period="86400" id="S2" startProg="off">
    <wautSwitch time="21600" to="1"/>    <!-- 6am, am peak -->
    <wautSwitch time="32400" to="2"/>  <!--	9am, midday -->
    <wautSwitch time="45000" to="3"/>   <!-- 12:30pm, school -->
	<wautSwitch time="52200" to="4"/>   <!-- 2:30pm, pm peak -->
    <wautSwitch time="66600" to="5"/>   <!-- 6:30pm, off peak -->
	<wautSwitch time="79200" to="off"/>   <!-- 10:00pm, light off -->
	</WAUT>

	<wautJunction junctionID="S2" wautID="S2">
	</wautJunction>

	<WAUT refTime="0" period="86400" id="S3" startProg="off">
    <wautSwitch time="21600" to="1"/>    <!-- 6am, am peak -->
    <wautSwitch time="32400" to="2"/>  <!--	9am, midday -->
    <wautSwitch time="45000" to="3"/>   <!-- 12:30pm, school -->
	<wautSwitch time="52200" to="4"/>   <!-- 2:30pm, pm peak -->
    <wautSwitch time="66600" to="5"/>   <!-- 6:30pm, off peak -->
	<wautSwitch time="79200" to="off"/>   <!-- 10:00pm, light off -->
	</WAUT>

	<wautJunction junctionID="S3" wautID="S3">
	</wautJunction>

</additional>