<additional>

    <tlLogic id="S1" type="actuated" programID="1" offset="107">
        <phase duration="76" state="rrrGGgrrrrGGGgg" minDur="10" maxDur="60"/>
        <phase duration="6"  state="rrryyyrrrryyyyy"/>
        <phase duration="9"  state="rrGrrrrrrGrrrrr" minDur="8" maxDur="20"/>
        <phase duration="6"  state="rryrrrrrryrrrrr"/>
        <phase duration="20" state="GGgrrrGGGgrrrrr" minDur="8" maxDur="25"/>
        <phase duration="6"  state="yyyrrryyyyrrrrr"/>
        <phase duration="11" state="rrrrrGrrrrrrrGG" minDur="8" maxDur="15"/>
        <phase duration="6"  state="rrrrryrrrrrrryy"/>
        <param key="coordinated" value="true"/>
        <param key="cycleTime" value="140"/>
        <param key="show-detectors" value="true"/>
    </tlLogic>
    <tlLogic id="S1" type="actuated" programID="2" offset="48">
        <phase duration="56" state="rrrGGgrrrrGGGgg" minDur="10" maxDur="60"/>
        <phase duration="6"  state="rrryyyrrrryyyyy"/>
        <phase duration="9"  state="rrGrrrrrrGrrrrr" minDur="8" maxDur="20"/>
        <phase duration="6"  state="rryrrrrrryrrrrr"/>
        <phase duration="9"  state="GGgrrrGGGgrrrrr" minDur="8" maxDur="25"/>
        <phase duration="6"  state="yyyrrryyyyrrrrr"/>
        <phase duration="12" state="rrrrrGrrrrrrrGG" minDur="8" maxDur="15"/>
        <phase duration="6"  state="rrrrryrrrrrrryy"/>
        <param key="coordinated" value="true"/>
        <param key="cycleTime" value="110"/>
        <param key="show-detectors" value="true"/>
    </tlLogic>
    <tlLogic id="S1" type="actuated" programID="3" offset="51">
        <phase duration="57" state="rrrGGgrrrrGGGgg" minDur="10" maxDur="60"/>
        <phase duration="6"  state="rrryyyrrrryyyyy"/>
        <phase duration="9"  state="rrGrrrrrrGrrrrr" minDur="8" maxDur="20"/>
        <phase duration="6"  state="rryrrrrrryrrrrr"/>
        <phase duration="9"  state="GGgrrrGGGgrrrrr" minDur="8" maxDur="25"/>
        <phase duration="6"  state="yyyrrryyyyrrrrr"/>
        <phase duration="11" state="rrrrrGrrrrrrrGG" minDur="8" maxDur="15"/>
        <phase duration="6"  state="rrrrryrrrrrrryy"/>
        <param key="coordinated" value="true"/>
        <param key="cycleTime" value="110"/>
        <param key="show-detectors" value="true"/>
    </tlLogic>
    <tlLogic id="S1" type="actuated" programID="4" offset="65">
        <phase duration="63" state="rrrGGgrrrrGGGgg" minDur="10" maxDur="60"/>
        <phase duration="6"  state="rrryyyrrrryyyyy"/>
        <phase duration="9"  state="rrGrrrrrrGrrrrr" minDur="8" maxDur="20"/>
        <phase duration="6"  state="rryrrrrrryrrrrr"/>
        <phase duration="13" state="GGgrrrGGGgrrrrr" minDur="8" maxDur="25"/>
        <phase duration="6"  state="yyyrrryyyyrrrrr"/>
        <phase duration="11" state="rrrrrGrrrrrrrGG" minDur="8" maxDur="15"/>
        <phase duration="6"  state="rrrrryrrrrrrryy"/>
        <param key="coordinated" value="true"/>
        <param key="cycleTime" value="120"/>
        <param key="show-detectors" value="true"/>
    </tlLogic>
    <tlLogic id="S1" type="actuated" programID="5" offset="54">
        <phase duration="76" state="rrrGGgrrrrGGGgg" minDur="10" maxDur="60"/>
        <phase duration="6"  state="rrryyyrrrryyyyy"/>
        <phase duration="9"  state="rrGrrrrrrGrrrrr" minDur="8" maxDur="20"/>
        <phase duration="6"  state="rryrrrrrryrrrrr"/>
        <phase duration="20" state="GGgrrrGGGgrrrrr" minDur="8" maxDur="25"/>
        <phase duration="6"  state="yyyrrryyyyrrrrr"/>
        <phase duration="11" state="rrrrrGrrrrrrrGG" minDur="8" maxDur="15"/>
        <phase duration="6"  state="rrrrryrrrrrrryy"/>
        <param key="coordinated" value="true"/>
        <param key="cycleTime" value="110"/>
        <param key="show-detectors" value="true"/>
    </tlLogic>
    <tlLogic id="S2" type="actuated" programID="1" offset="109">
        <phase duration="80" state="rrrGGGrrrrGGGrr" minDur="7" maxDur="45"/>
        <phase duration="5"  state="rrryyyrrrryyyrr"/>
        <phase duration="10"  state="rrGrrrrrrGrrrrr" minDur="5" maxDur="45"/>
        <phase duration="5"  state="rryrrrrrryrrrrr"/>
        <phase duration="15" state="GGgrrrrGGgrrrrr" minDur="5" maxDur="45"/>
        <phase duration="5"  state="yyyrrrryyyrrrrr"/>
        <phase duration="15"  state="rrrrrrGrrrrrrGG" minDur="9" maxDur="45"/>
        <phase duration="5"  state="rrrrrryrrrrrryy"/>
        <param key="coordinated" value="true"/>
                <param key="cycleTime" value="140"/>
        <param key="show-detectors" value="true"/>
    </tlLogic>
    <tlLogic id="S2" type="actuated" programID="2" offset="20">
        <phase duration="54" state="rrrGGGrrrrGGGrr" minDur="7" maxDur="45"/>
        <phase duration="5"  state="rrryyyrrrryyyrr"/>
        <phase duration="10"  state="rrGrrrrrrGrrrrr" minDur="5" maxDur="45"/>
        <phase duration="5"  state="rryrrrrrryrrrrr"/>
        <phase duration="16" state="GGgrrrrGGgrrrrr" minDur="5" maxDur="45"/>
        <phase duration="5"  state="yyyrrrryyyrrrrr"/>
        <phase duration="10"  state="rrrrrrGrrrrrrGG" minDur="9" maxDur="45"/>
        <phase duration="5"  state="rrrrrryrrrrrryy"/>
        <param key="coordinated" value="true"/>
                <param key="cycleTime" value="110"/>
        <param key="show-detectors" value="true"/>
    </tlLogic>
    <tlLogic id="S2" type="actuated" programID="3" offset="109">
        <phase duration="45" state="rrrGGGrrrrGGGrr" minDur="7" maxDur="45"/>
        <phase duration="5"  state="rrryyyrrrryyyrr"/>
        <phase duration="10"  state="rrGrrrrrrGrrrrr" minDur="5" maxDur="45"/>
        <phase duration="5"  state="rryrrrrrryrrrrr"/>
        <phase duration="22" state="GGgrrrrGGgrrrrr" minDur="5" maxDur="45"/>
        <phase duration="5"  state="yyyrrrryyyrrrrr"/>
        <phase duration="13"  state="rrrrrrGrrrrrrGG" minDur="9" maxDur="45"/>
        <phase duration="5"  state="rrrrrryrrrrrryy"/>
        <param key="coordinated" value="true"/>
                <param key="cycleTime" value="110"/>
        <param key="show-detectors" value="true"/>
    </tlLogic>
    <tlLogic id="S2" type="actuated" programID="4" offset="120">
        <phase duration="50" state="rrrGGGrrrrGGGrr" minDur="7" maxDur="45"/>
        <phase duration="5"  state="rrryyyrrrryyyrr"/>
        <phase duration="13"  state="rrGrrrrrrGrrrrr" minDur="5" maxDur="45"/>
        <phase duration="5"  state="rryrrrrrryrrrrr"/>
        <phase duration="27" state="GGgrrrrGGgrrrrr" minDur="5" maxDur="45"/>
        <phase duration="5"  state="yyyrrrryyyrrrrr"/>
        <phase duration="10"  state="rrrrrrGrrrrrrGG" minDur="9" maxDur="45"/>
        <phase duration="5"  state="rrrrrryrrrrrryy"/>
        <param key="coordinated" value="true"/>
                <param key="cycleTime" value="120"/>
        <param key="show-detectors" value="true"/>
    </tlLogic>
    <tlLogic id="S2" type="actuated" programID="5" offset="0">
        <phase duration="57" state="rrrGGGrrrrGGGrr" minDur="7" maxDur="45"/>
        <phase duration="5"  state="rrryyyrrrryyyrr"/>
        <phase duration="7"  state="rrGrrrrrrGrrrrr" minDur="5" maxDur="45"/>
        <phase duration="5"  state="rryrrrrrryrrrrr"/>
        <phase duration="17" state="GGgrrrrGGgrrrrr" minDur="5" maxDur="45"/>
        <phase duration="5"  state="yyyrrrryyyrrrrr"/>
        <phase duration="9"  state="rrrrrrGrrrrrrGG" minDur="9" maxDur="45"/>
        <phase duration="5"  state="rrrrrryrrrrrryy"/>
        <param key="coordinated" value="true"/>
                <param key="cycleTime" value="110"/>
        <param key="show-detectors" value="true"/>
    </tlLogic>
    <tlLogic id="S3" type="actuated" programID="1" offset="63">
        <phase duration="90" state="rrGGGGGr" minDur="15" maxDur="50"/>
        <phase duration="5"  state="rrGyyyyr"/>
        <phase duration="25" state="GGGrrrrr" minDur="10" maxDur="50"/>
        <phase duration="5"  state="yyyrrrrr"/>
        <phase duration="10"  state="rrrrrGGG" minDur="8" maxDur="30"/>
        <phase duration="5"  state="rrrrryyy"/>
        <param key="coordinated" value="true"/>
                <param key="cycleTime" value="140"/>
        <param key="show-detectors" value="true"/>
    </tlLogic>
    <tlLogic id="S3" type="actuated" programID="2" offset="21">
        <phase duration="70" state="rrGGGGGr" minDur="15" maxDur="50"/>
        <phase duration="5"  state="rrGyyyyr"/>
        <phase duration="15" state="GGGrrrrr" minDur="10" maxDur="50"/>
        <phase duration="5"  state="yyyrrrrr"/>
        <phase duration="10"  state="rrrrrGGG" minDur="8" maxDur="30"/>
        <phase duration="5"  state="rrrrryyy"/>
        <param key="coordinated" value="true"/>
                <param key="cycleTime" value="110"/>
        <param key="show-detectors" value="true"/>
    </tlLogic>
    <tlLogic id="S3" type="actuated" programID="3" offset="7">
        <phase duration="67" state="rrGGGGGr" minDur="15" maxDur="50"/>
        <phase duration="5"  state="rrGyyyyr"/>
        <phase duration="15" state="GGGrrrrr" minDur="10" maxDur="50"/>
        <phase duration="5"  state="yyyrrrrr"/>
        <phase duration="13"  state="rrrrrGGG" minDur="8" maxDur="30"/>
        <phase duration="5"  state="rrrrryyy"/>
        <param key="coordinated" value="true"/>
                <param key="cycleTime" value="110"/>
        <param key="show-detectors" value="true"/>
    </tlLogic>
    <tlLogic id="S3" type="actuated" programID="4" offset="12">
        <phase duration="73" state="rrGGGGGr" minDur="15" maxDur="50"/>
        <phase duration="5"  state="rrGyyyyr"/>
        <phase duration="20" state="GGGrrrrr" minDur="10" maxDur="50"/>
        <phase duration="5"  state="yyyrrrrr"/>
        <phase duration="12"  state="rrrrrGGG" minDur="8" maxDur="30"/>
        <phase duration="5"  state="rrrrryyy"/>
        <param key="coordinated" value="true"/>
                <param key="cycleTime" value="110"/>
        <param key="show-detectors" value="true"/>
    </tlLogic>
    <tlLogic id="S3" type="actuated" programID="5" offset="108">
        <phase duration="65" state="rrGGGGGr" minDur="15" maxDur="50"/>
        <phase duration="5"  state="rrGyyyyr"/>
        <phase duration="15" state="GGGrrrrr" minDur="10" maxDur="50"/>
        <phase duration="5"  state="yyyrrrrr"/>
        <phase duration="15"  state="rrrrrGGG" minDur="8" maxDur="30"/>
        <phase duration="5"  state="rrrrryyy"/>
        <param key="coordinated" value="true"/>
                <param key="cycleTime" value="110"/>
        <param key="show-detectors" value="true"/>
    </tlLogic>

	<WAUT refTime="0" period="86400" id="S1-weekday" startProg="off">
    <wautSwitch time="18000" to="1"/>    <!-- 5am, am peak -->
    <wautSwitch time="32400" to="2"/>  <!--	9am, midday -->
    <wautSwitch time="45000" to="3"/>   <!-- 12:30pm, school -->
	<wautSwitch time="52200" to="4"/>   <!-- 2:30pm, pm peak -->
    <wautSwitch time="66600" to="5"/>   <!-- 6:30pm, off peak -->
	<wautSwitch time="79200" to="off"/>   <!-- 10:00pm, light off -->
	</WAUT>

    <WAUT refTime="0" period="86400" id="S1-SAT" startProg="off">
    <wautSwitch time="25200" to="2"/>    <!-- 5am, am peak -->
	<wautSwitch time="79200" to="off"/>   <!-- 10:00pm, light off -->
	</WAUT>

    <WAUT refTime="0" period="86400" id="S1-SUN" startProg="off">
    <wautSwitch time="28800" to="2"/>    <!-- 5am, am peak -->
	<wautSwitch time="75600" to="off"/>   <!-- 10:00pm, light off -->
	</WAUT>

  	<wautJunction junctionID="S1" wautID="S1-weekday">
	</wautJunction>

	<WAUT refTime="0" period="86400" id="S2-weekday" startProg="off">
    <wautSwitch time="21600" to="1"/>    <!-- 6am, am peak -->
    <wautSwitch time="32400" to="2"/>  <!--	9am, midday -->
    <wautSwitch time="45000" to="3"/>   <!-- 12:30pm, school -->
	<wautSwitch time="52200" to="4"/>   <!-- 2:30pm, pm peak -->
    <wautSwitch time="66600" to="5"/>   <!-- 6:30pm, off peak -->
	<wautSwitch time="79200" to="off"/>   <!-- 10:00pm, light off -->
	</WAUT>

    <WAUT refTime="0" period="86400" id="S2-SAT" startProg="off">
    <wautSwitch time="25200" to="2"/>    <!-- 5am, am peak -->
	<wautSwitch time="79200" to="off"/>   <!-- 10:00pm, light off -->
	</WAUT>

    <WAUT refTime="0" period="86400" id="S2-SUN" startProg="off">
    <wautSwitch time="28800" to="2"/>    <!-- 5am, am peak -->
	<wautSwitch time="75600" to="off"/>   <!-- 10:00pm, light off -->
	</WAUT>

	<wautJunction junctionID="S2" wautID="S2-weekday">
	</wautJunction>

	<WAUT refTime="0" period="86400" id="S3-weekday" startProg="off">
    <wautSwitch time="21600" to="1"/>    <!-- 6am, am peak -->
    <wautSwitch time="32400" to="2"/>  <!--	9am, midday -->
    <wautSwitch time="45000" to="3"/>   <!-- 12:30pm, school -->
	<wautSwitch time="52200" to="4"/>   <!-- 2:30pm, pm peak -->
    <wautSwitch time="66600" to="5"/>   <!-- 6:30pm, off peak -->
	<wautSwitch time="79200" to="off"/>   <!-- 10:00pm, light off -->
	</WAUT>

    <WAUT refTime="0" period="86400" id="S3-SAT" startProg="off">
    <wautSwitch time="25200" to="2"/>    <!-- 5am, am peak -->
	<wautSwitch time="79200" to="off"/>   <!-- 10:00pm, light off -->
	</WAUT>

    <WAUT refTime="0" period="86400" id="S3-SUN" startProg="off">
    <wautSwitch time="28800" to="2"/>    <!-- 5am, am peak -->
	<wautSwitch time="75600" to="off"/>   <!-- 10:00pm, light off -->
	</WAUT>

	<wautJunction junctionID="S3" wautID="S3-weekday">
	</wautJunction>

</additional>